units real
atom_style full
boundary p p p

pair_style lj/charmm/coul/long 12.0 16.0
kspace_style pppm 1e-6
dielectric 1.000000
bond_style harmonic
angle_style harmonic
dihedral_style fourier
improper_style cvff
special_bonds amber
pair_modify mix arithmetic
neighbor 2.0 bin
neigh_modify delay 0 every 1 check yes
read_data mix_cell_ini.data
Reading data file ...
  orthogonal box = (-78.540631 -78.540631 -78.540631) to (78.540631 78.540631 78.540631)
  reading atoms ...
  10248 atoms
  reading velocities ...
  10248 velocities
  scanning bonds ...
  scanning angles ...
  scanning dihedrals ...
  scanning impropers ...
  reading bonds ...
  9301 bonds
  reading angles ...
  912 angles
  reading dihedrals ...
  1449 dihedrals
  reading impropers ...
  150 impropers
Finding 1-2 1-3 1-4 neighbors ...
     4 = max # of 1-2 neighbors
     8 = max # of 1-3 neighbors
    18 = max # of 1-4 neighbors
    22 = max # of special neighbors

thermo_style custom step time temp press enthalpy etotal ke pe ebond eangle edihed eimp evdwl ecoul elong etail vol lx ly lz density pxx pyy pzz pxy pxz pyz
thermo_modify flush yes
thermo 1000

group fixed_atoms id 1
1 atoms in group fixed_atoms
group rest_atoms subtract all fixed_atoms
10247 atoms in group rest_atoms
fix fix1 fixed_atoms setforce 0.0 0.0 0.0

dump dump0 all custom 1000 poly_sol_npt.dump id type mol x y z ix iy iz vx vy vz
dump xtc0 all xtc 1000 poly_sol.xtc
dump_modify xtc0 unwrap yes
restart 10000 radon_md_1.rst radon_md_2.rst

timestep 0.005000

# npt
fix md1 all npt temp 300.000000 300.000000 100.000000 iso 1.000000 1.000000 500.000000 nreset 1000

run 2000000
PPPM initialization ...
  G vector (1/distance) = 0.18235202
  grid = 72 72 72
  stencil order = 5
  estimated absolute RMS force accuracy = 0.00035704683
  estimated relative force accuracy = 1.0752359e-06
  3d grid and FFT values/proc = 24969 15552
  update every 1 steps, delay 0 steps, check yes
Step Time Temp Press Enthalpy TotEng KinEng PotEng E_bond E_angle E_dihed E_impro E_vdwl E_coul E_long E_tail Volume Lx Ly Lz Density Pxx Pyy Pzz Pxy Pxz Pyz
0            0    301.67997    85.083567   -45064.796   -49874.239    9214.6219   -59088.861    807.98322    283.72735     125.8923  0.071404411    1848.0099   -10145.289   -52009.256            0    3875905.2    157.08126    157.08126    157.08126  0.025637322    77.612348    51.153585    126.48477    6.1642736    5.0420398  0.080880717
Averages over the last 1001 of 2001 rows, steps 1000000 to 2000000:
Temp Press Enthalpy TotEng KinEng PotEng E_bond E_angle E_dihed E_impro E_vdwl E_coul E_long E_tail Volume Lx Ly Lz Density Pxx Pyy Pzz Pxy Pxz Pyz
300.972 -0.890898 -69417.6 -69379.5 9193.01 -78572.5 2436.44 199.574 156.002 1.00943 5390.71 -34882.1 -51874.1 0 2.94804e+06 143.291 143.291 143.291 0.0339115 -1.84066 -0.474498 -0.357536 0.0870335 -0.83576 0.254318
Loop time of 9223.07 on 30 procs for 2000000 steps with 10248 atoms

-0.0% CPU use with 30 MPI tasks x 1 OpenMP threads

unfix md1

write_dump all custom radon_md_last.dump id x y z xu yu zu vx vy vz fx fy fz modify sort id
write_data poly_sol_last.data
System init for write_data ...
PPPM initialization ...
  G vector (1/distance) = 0.18308954
  grid = 64 64 64
  stencil order = 5
  estimated absolute RMS force accuracy = 0.00040945811
  estimated relative force accuracy = 1.2330709e-06
  3d grid and FFT values/proc = 18981 12288
quit
