units real
atom_style full
boundary p p p

pair_style lj/charmm/coul/long 12.0 16.0
kspace_style pppm 1e-6
dielectric 1.000000
bond_style harmonic
angle_style harmonic
dihedral_style fourier
improper_style cvff
special_bonds amber
pair_modify mix arithmetic
neighbor 2.0 bin
neigh_modify delay 0 every 1 check yes
read_data /home/weilin/radonpy_file/radonpy_org/RadonPy-develop/PolySolSimulator_pre/md1/poly30_acetone/sampling_md/equilibrated_mix_cell_ini.data
Reading data file ...
  orthogonal box = (-83.100741 -83.100741 -83.100741) to (83.100741 83.100741 83.100741)
  reading atoms ...
  10248 atoms
  reading velocities ...
  10248 velocities
  scanning bonds ...
  scanning angles ...
  scanning dihedrals ...
  scanning impropers ...
  reading bonds ...
  9301 bonds
  reading angles ...
  912 angles
  reading dihedrals ...
  1449 dihedrals
  reading impropers ...
  150 impropers
Finding 1-2 1-3 1-4 neighbors ...
     4 = max # of 1-2 neighbors
     8 = max # of 1-3 neighbors
    18 = max # of 1-4 neighbors
    22 = max # of special neighbors

thermo_style custom step time temp press enthalpy etotal ke pe ebond eangle edihed eimp evdwl ecoul elong etail vol lx ly lz density pxx pyy pzz pxy pxz pyz
thermo_modify flush yes
thermo 1000

dump dump0 all custom 1000 sampling.dump id type mol x y z ix iy iz vx vy vz
dump xtc0 all xtc 1000 sampling.xtc
dump_modify xtc0 unwrap yes
restart 10000 radon_md_1.rst radon_md_2.rst

timestep 0.005000
compute cmol1 all chunk/atom molecule nchunk once limit 0 ids once compress no

# rg
compute gyr1 all gyration/chunk cmol1
fix rg1 all ave/time 1 1000 1000 c_gyr1 file rg.profile mode vector
fix shake1 all shake 1e-4 1000 0 m 1.0
     180 = # of size 2 clusters
      30 = # of size 3 clusters
    1954 = # of size 4 clusters
       0 = # of frozen angles
  find clusters CPU = 0.002 seconds

# npt
fix md1 all npt temp 300.000000 300.000000 100.000000 iso 1.000000 1.000000 500.000000 nreset 1000

run 500000
PPPM initialization ...
  G vector (1/distance) = 0.17982144
  grid = 72 72 72
  stencil order = 5
  estimated absolute RMS force accuracy = 0.00042057133
  estimated relative force accuracy = 1.2665381e-06
  3d grid and FFT values/proc = 24969 15552
  update every 1 steps, delay 0 steps, check yes
Step Time Temp Press Enthalpy TotEng KinEng PotEng E_bond E_angle E_dihed E_impro E_vdwl E_coul E_long E_tail Volume Lx Ly Lz Density Pxx Pyy Pzz Pxy Pxz Pyz
0            0    375.76528    891.58976   -12506.537   -72202.594    9199.2575   -81401.852    1960.3672    192.54117    160.46763    1.1609393    5403.7378   -37845.217    -51274.91            0    4590972.4    166.20148    166.20148    166.20148  0.021644179    903.19651    2065.8748   -294.30197     2048.848    2087.9678     1580.721
Averages over the last 251 of 501 rows, steps 250000 to 500000:
Temp Press Enthalpy TotEng KinEng PotEng E_bond E_angle E_dihed E_impro E_vdwl E_coul E_long E_tail Volume Lx Ly Lz Density Pxx Pyy Pzz Pxy Pxz Pyz
300.051 -0.931596 -76897.6 -76840.2 7345.66 -84185.9 1833.45 179.677 144.093 0.78122 5454.43 -40480.2 -51318.1 0 4.21998e+06 161.591 161.591 161.591 0.023557 -1.98997 0.315422 -1.12024 -0.766274 -0.540998 -1.60578
Loop time of 3145.88 on 30 procs for 500000 steps with 10248 atoms

-0.0% CPU use with 30 MPI tasks x 1 OpenMP threads

unfix md1
uncompute cmol1
unfix rg1
uncompute gyr1
unfix shake1

write_dump all custom radon_md_last.dump id x y z xu yu zu vx vy vz fx fy fz modify sort id
write_data sampling_last.data
System init for write_data ...
PPPM initialization ...
  G vector (1/distance) = 0.181651
  grid = 72 72 72
  stencil order = 5
  estimated absolute RMS force accuracy = 0.00037394505
  estimated relative force accuracy = 1.1261244e-06
  3d grid and FFT values/proc = 24969 15552
quit
