units real
atom_style full
boundary f f f

pair_style lj/charmm/coul/charmm 8.0 12.0
dielectric 1.000000
bond_style harmonic
angle_style harmonic
dihedral_style fourier
improper_style cvff
special_bonds amber
pair_modify mix arithmetic
neighbor 2.0 bin
neigh_modify delay 0 every 1 check yes
read_data radon_md_lmp.data
Reading data file ...
  orthogonal box = (-7.0525382 -7.0525382 -7.0525382) to (7.0525382 7.0525382 7.0525382)
  reading atoms ...
  10 atoms
  scanning bonds ...
  scanning angles ...
  scanning dihedrals ...
  reading bonds ...
  9 bonds
  reading angles ...
  15 angles
  reading dihedrals ...
  12 dihedrals
Finding 1-2 1-3 1-4 neighbors ...
     4 = max # of 1-2 neighbors
     6 = max # of 1-3 neighbors
     8 = max # of 1-4 neighbors
     9 = max # of special neighbors

thermo_style custom step time temp press enthalpy etotal ke pe ebond eangle edihed eimp evdwl ecoul elong etail vol lx ly lz density pxx pyy pzz pxy pxz pyz
thermo_modify flush yes
thermo 1000

dump dump0 all custom 1000 radon_md.dump id type mol x y z ix iy iz vx vy vz
restart 10000 radon_md_1.rst radon_md_2.rst

undump dump0
min_style cg
minimize 0.000100 0.000001 10000 100000
  update every 1 steps, delay 0 steps, check yes
Step Time Temp Press Enthalpy TotEng KinEng PotEng E_bond E_angle E_dihed E_impro E_vdwl E_coul E_long E_tail Volume Lx Ly Lz Density Pxx Pyy Pzz Pxy Pxz Pyz
0            0            0    372.02396     19.70335    4.4777946            0    4.4777946    1.3064733      1.67991    5.3633635            0   0.80246774     -4.67442            0            0    2806.2498    14.105076    14.105076    14.105076   0.03436761    831.57317   -549.40829      833.907    15.258604   -33.072505   -657.56934
Loop time of 0.00472645 on 22 procs for 32 steps with 10 atoms

-0.0% CPU use with 22 MPI tasks x 1 OpenMP threads

Minimization stats:
  Stopping criterion = energy tolerance
  Energy initial, next-to-last, final =
  Force two-norm initial, final = 71.911803 1.7956016
  Force max component initial, final = 37.842316 1.0236125
  Final line search alpha, max atom move = 0.017504313 0.017917633
  Iterations, force evaluations = 32 91

reset_timestep 0
dump dump0 all custom 1000 radon_md.dump id type mol x y z ix iy iz vx vy vz

write_dump all custom radon_md_last.dump id x y z xu yu zu vx vy vz fx fy fz modify sort id
write_data radon_md_last.data
System init for write_data ...
quit
units real
atom_style full
boundary p p p

pair_style lj/charmm/coul/long 12.0 16.0
kspace_style pppm 1e-6
dielectric 1.000000
bond_style harmonic
angle_style harmonic
dihedral_style fourier
improper_style cvff
special_bonds amber
pair_modify mix arithmetic
neighbor 2.0 bin
neigh_modify delay 0 every 1 check yes
read_data init.data
Reading data file ...
  orthogonal box = (-62.240333 -62.240333 -62.240333) to (62.240333 62.240333 62.240333)
  reading atoms ...
  10000 atoms
  reading velocities ...
  10000 velocities
  scanning bonds ...
  scanning angles ...
  scanning dihedrals ...
  reading bonds ...
  9000 bonds
  reading angles ...
  15000 angles
  reading dihedrals ...
  12000 dihedrals
Finding 1-2 1-3 1-4 neighbors ...
     4 = max # of 1-2 neighbors
     6 = max # of 1-3 neighbors
     8 = max # of 1-4 neighbors
     9 = max # of special neighbors

thermo_style custom step time temp press enthalpy etotal ke pe ebond eangle edihed eimp evdwl ecoul elong etail vol lx ly lz density pxx pyy pzz pxy pxz pyz
thermo_modify flush yes
thermo 1000

dump dump0 all custom 1000 npt.dump id type mol x y z ix iy iz vx vy vz
dump xtc0 all xtc 1000 npt.xtc
dump_modify xtc0 unwrap yes
restart 10000 radon_md_1.rst radon_md_2.rst

undump dump0
undump xtc0
min_style cg
minimize 0.000100 0.000001 10000 100000
PPPM initialization ...
  G vector (1/distance) = 0.18496289
  grid = 60 60 60
  stencil order = 5
  estimated absolute RMS force accuracy = 0.00041368548
  estimated relative force accuracy = 1.2458015e-06
  3d grid and FFT values/proc = 27300 10800
  update every 1 steps, delay 0 steps, check yes
Step Time Temp Press Enthalpy TotEng KinEng PotEng E_bond E_angle E_dihed E_impro E_vdwl E_coul E_long E_tail Volume Lx Ly Lz Density Pxx Pyy Pzz Pxy Pxz Pyz
0            0            0   -32.145741   -57962.858   -57058.574            0   -57058.574    117.81639    487.65698    4929.3308            0    342.36461   -9137.1098   -53798.633            0    1928882.2    124.48067    124.48067    124.48067  0.049999996   -11.264963   -3.2038398    -81.96842    5.8332732  0.095303496    5.8571008
Loop time of 0.0915094 on 22 procs for 11 steps with 10000 atoms

-0.0% CPU use with 22 MPI tasks x 1 OpenMP threads

Minimization stats:
  Stopping criterion = energy tolerance
  Energy initial, next-to-last, final =
  Force two-norm initial, final = 805.22728 104.81709
  Force max component initial, final = 334.30843 32.452310
  Final line search alpha, max atom move = 0.0039633740 0.12862064
  Iterations, force evaluations = 11 18

reset_timestep 0
dump dump0 all custom 1000 npt.dump id type mol x y z ix iy iz vx vy vz
dump xtc0 all xtc 1000 npt.xtc
dump_modify xtc0 unwrap yes

timestep 0.002000
fix shake2 all shake 1e-4 1000 0 m 1.0
       0 = # of size 2 clusters
       0 = # of size 3 clusters
    2000 = # of size 4 clusters
       0 = # of frozen angles
  find clusters CPU = 0.001 seconds

# npt
fix md2 all npt temp 300.000000 300.000000 100.000000 iso 0.100000 0.100000 1000.000000 nreset 1000

run 1000000
PPPM initialization ...
  G vector (1/distance) = 0.18496289
  grid = 60 60 60
  stencil order = 5
  estimated absolute RMS force accuracy = 0.00041368548
  estimated relative force accuracy = 1.2458015e-06
  3d grid and FFT values/proc = 27300 10800
Step Time Temp Press Enthalpy TotEng KinEng PotEng E_bond E_angle E_dihed E_impro E_vdwl E_coul E_long E_tail Volume Lx Ly Lz Density Pxx Pyy Pzz Pxy Pxz Pyz
0            0            0    419.24302   -45763.862    -57557.49            0    -57557.49    219.75572    401.92731    4989.4729            0     304.3844    -9657.731     -53815.3            0    1928882.2    124.48067    124.48067    124.48067  0.049999996    449.84897    439.67873    368.20135   -9.2436577    1.9811764    9.8633659
Averages over the last 501 of 1001 rows, steps 500000 to 1000000:
Temp Press Enthalpy TotEng KinEng PotEng E_bond E_angle E_dihed E_impro E_vdwl E_coul E_long E_tail Volume Lx Ly Lz Density Pxx Pyy Pzz Pxy Pxz Pyz
295.069 41.4965 -48621.6 -49833 7035.48 -56868.5 206.593 964.264 5145.77 0 423.667 -9768.28 -53840.5 0 2.00827e+06 126.154 126.154 126.154 0.0480625 43.1185 38.9021 42.4687 1.84867 -2.9581 -1.0424
Loop time of 3723.85 on 22 procs for 1000000 steps with 10000 atoms

-0.0% CPU use with 22 MPI tasks x 1 OpenMP threads

unfix md2
unfix shake2

write_dump all custom radon_md_last.dump id x y z xu yu zu vx vy vz fx fy fz modify sort id
write_data npt_last.data
System init for write_data ...
PPPM initialization ...
  G vector (1/distance) = 0.18671644
  grid = 64 64 64
  stencil order = 5
  estimated absolute RMS force accuracy = 0.00033651171
  estimated relative force accuracy = 1.013395e-06
  3d grid and FFT values/proc = 30636 12288
quit
